Version 4
SHEET 1 1124 680
WIRE 224 -2848 96 -2848
WIRE 464 -2848 336 -2848
WIRE 704 -2848 576 -2848
WIRE 336 160 224 160
WIRE 576 160 464 160
WIRE 704 176 704 160
WIRE 880 176 704 176
WIRE 1072 176 960 176
WIRE 704 208 704 176
WIRE 96 368 96 -1440
WIRE 704 368 704 288
WIRE 704 368 96 368
FLAG 1072 176 V+
FLAG 704 368 V-
SYMBOL current 704 288 R180
WINDOW 0 24 80 Left 2
WINDOW 3 24 0 Left 2
WINDOW 123 0 0 Left 0
WINDOW 39 0 0 Left 0
SYMATTR InstName I1
SYMATTR Value {SOLAR_PANEL_CURRENT}
SYMBOL res 976 160 R90
WINDOW 0 0 56 VBottom 2
WINDOW 3 32 56 VTop 2
SYMATTR InstName R1
SYMATTR Value 10m
SYMBOL diode 80 -1504 R0
SYMATTR InstName D26
SYMBOL diode 80 -1568 R0
SYMATTR InstName D27
SYMBOL diode 80 -1632 R0
SYMATTR InstName D28
SYMBOL diode 80 -1696 R0
SYMATTR InstName D29
SYMBOL diode 80 -1760 R0
SYMATTR InstName D30
SYMBOL diode 80 -1824 R0
SYMATTR InstName D31
SYMBOL diode 80 -1888 R0
SYMATTR InstName D32
SYMBOL diode 80 -1952 R0
SYMATTR InstName D33
SYMBOL diode 80 -2016 R0
SYMATTR InstName D34
SYMBOL diode 80 -2080 R0
SYMATTR InstName D35
SYMBOL diode 80 -2144 R0
SYMATTR InstName D36
SYMBOL diode 80 -2208 R0
SYMATTR InstName D37
SYMBOL diode 80 -2272 R0
SYMATTR InstName D38
SYMBOL diode 80 -2336 R0
SYMATTR InstName D39
SYMBOL diode 80 -2400 R0
SYMATTR InstName D40
SYMBOL diode 80 -2464 R0
SYMATTR InstName D41
SYMBOL diode 80 -2528 R0
SYMATTR InstName D42
SYMBOL diode 80 -2592 R0
SYMATTR InstName D43
SYMBOL diode 80 -2656 R0
SYMATTR InstName D44
SYMBOL diode 80 -2720 R0
SYMATTR InstName D45
SYMBOL diode 80 -2784 R0
SYMATTR InstName D46
SYMBOL diode 80 -2848 R0
SYMATTR InstName D47
SYMBOL diode 240 -2784 R180
WINDOW 0 24 64 Left 2
WINDOW 3 24 0 Left 2
SYMATTR InstName D48
SYMBOL diode 240 -2720 R180
WINDOW 0 24 64 Left 2
WINDOW 3 24 0 Left 2
SYMATTR InstName D49
SYMBOL diode 240 -2656 R180
WINDOW 0 24 64 Left 2
WINDOW 3 24 0 Left 2
SYMATTR InstName D50
SYMBOL diode 240 -2592 R180
WINDOW 0 24 64 Left 2
WINDOW 3 24 0 Left 2
SYMATTR InstName D51
SYMBOL diode 240 -2528 R180
WINDOW 0 24 64 Left 2
WINDOW 3 24 0 Left 2
SYMATTR InstName D52
SYMBOL diode 240 -2464 R180
WINDOW 0 24 64 Left 2
WINDOW 3 24 0 Left 2
SYMATTR InstName D53
SYMBOL diode 240 -2400 R180
WINDOW 0 24 64 Left 2
WINDOW 3 24 0 Left 2
SYMATTR InstName D54
SYMBOL diode 240 -2336 R180
WINDOW 0 24 64 Left 2
WINDOW 3 24 0 Left 2
SYMATTR InstName D55
SYMBOL diode 240 -2272 R180
WINDOW 0 24 64 Left 2
WINDOW 3 24 0 Left 2
SYMATTR InstName D56
SYMBOL diode 240 -2208 R180
WINDOW 0 24 64 Left 2
WINDOW 3 24 0 Left 2
SYMATTR InstName D57
SYMBOL diode 240 -2144 R180
WINDOW 0 24 64 Left 2
WINDOW 3 24 0 Left 2
SYMATTR InstName D58
SYMBOL diode 240 -2080 R180
WINDOW 0 24 64 Left 2
WINDOW 3 24 0 Left 2
SYMATTR InstName D59
SYMBOL diode 240 -2016 R180
WINDOW 0 24 64 Left 2
WINDOW 3 24 0 Left 2
SYMATTR InstName D60
SYMBOL diode 240 -1952 R180
WINDOW 0 24 64 Left 2
WINDOW 3 24 0 Left 2
SYMATTR InstName D61
SYMBOL diode 240 -1888 R180
WINDOW 0 24 64 Left 2
WINDOW 3 24 0 Left 2
SYMATTR InstName D62
SYMBOL diode 240 -1824 R180
WINDOW 0 24 64 Left 2
WINDOW 3 24 0 Left 2
SYMATTR InstName D63
SYMBOL diode 240 -1760 R180
WINDOW 0 24 64 Left 2
WINDOW 3 24 0 Left 2
SYMATTR InstName D64
SYMBOL diode 240 -1696 R180
WINDOW 0 24 64 Left 2
WINDOW 3 24 0 Left 2
SYMATTR InstName D65
SYMBOL diode 240 -1632 R180
WINDOW 0 24 64 Left 2
WINDOW 3 24 0 Left 2
SYMATTR InstName D66
SYMBOL diode 240 -1568 R180
WINDOW 0 24 64 Left 2
WINDOW 3 24 0 Left 2
SYMATTR InstName D67
SYMBOL diode 240 -1504 R180
WINDOW 0 24 64 Left 2
WINDOW 3 24 0 Left 2
SYMATTR InstName D68
SYMBOL diode 240 -1440 R180
WINDOW 0 24 64 Left 2
WINDOW 3 24 0 Left 2
SYMATTR InstName D69
SYMBOL diode 240 -1376 R180
WINDOW 0 24 64 Left 2
WINDOW 3 24 0 Left 2
SYMATTR InstName D70
SYMBOL diode 240 -1312 R180
WINDOW 0 24 64 Left 2
WINDOW 3 24 0 Left 2
SYMATTR InstName D71
SYMBOL diode 240 -1248 R180
WINDOW 0 24 64 Left 2
WINDOW 3 24 0 Left 2
SYMATTR InstName D72
SYMBOL diode 240 -1184 R180
WINDOW 0 24 64 Left 2
WINDOW 3 24 0 Left 2
SYMATTR InstName D73
SYMBOL diode 240 -1120 R180
WINDOW 0 24 64 Left 2
WINDOW 3 24 0 Left 2
SYMATTR InstName D74
SYMBOL diode 240 -1056 R180
WINDOW 0 24 64 Left 2
WINDOW 3 24 0 Left 2
SYMATTR InstName D75
SYMBOL diode 240 -992 R180
WINDOW 0 24 64 Left 2
WINDOW 3 24 0 Left 2
SYMATTR InstName D76
SYMBOL diode 240 -928 R180
WINDOW 0 24 64 Left 2
WINDOW 3 24 0 Left 2
SYMATTR InstName D77
SYMBOL diode 240 -864 R180
WINDOW 0 24 64 Left 2
WINDOW 3 24 0 Left 2
SYMATTR InstName D78
SYMBOL diode 240 -800 R180
WINDOW 0 24 64 Left 2
WINDOW 3 24 0 Left 2
SYMATTR InstName D79
SYMBOL diode 240 -736 R180
WINDOW 0 24 64 Left 2
WINDOW 3 24 0 Left 2
SYMATTR InstName D80
SYMBOL diode 240 -672 R180
WINDOW 0 24 64 Left 2
WINDOW 3 24 0 Left 2
SYMATTR InstName D81
SYMBOL diode 240 -608 R180
WINDOW 0 24 64 Left 2
WINDOW 3 24 0 Left 2
SYMATTR InstName D82
SYMBOL diode 240 -544 R180
WINDOW 0 24 64 Left 2
WINDOW 3 24 0 Left 2
SYMATTR InstName D83
SYMBOL diode 240 -480 R180
WINDOW 0 24 64 Left 2
WINDOW 3 24 0 Left 2
SYMATTR InstName D84
SYMBOL diode 240 -416 R180
WINDOW 0 24 64 Left 2
WINDOW 3 24 0 Left 2
SYMATTR InstName D85
SYMBOL diode 240 -352 R180
WINDOW 0 24 64 Left 2
WINDOW 3 24 0 Left 2
SYMATTR InstName D86
SYMBOL diode 240 -288 R180
WINDOW 0 24 64 Left 2
WINDOW 3 24 0 Left 2
SYMATTR InstName D87
SYMBOL diode 240 -224 R180
WINDOW 0 24 64 Left 2
WINDOW 3 24 0 Left 2
SYMATTR InstName D88
SYMBOL diode 240 -160 R180
WINDOW 0 24 64 Left 2
WINDOW 3 24 0 Left 2
SYMATTR InstName D89
SYMBOL diode 240 -96 R180
WINDOW 0 24 64 Left 2
WINDOW 3 24 0 Left 2
SYMATTR InstName D90
SYMBOL diode 240 -32 R180
WINDOW 0 24 64 Left 2
WINDOW 3 24 0 Left 2
SYMATTR InstName D91
SYMBOL diode 240 32 R180
WINDOW 0 24 64 Left 2
WINDOW 3 24 0 Left 2
SYMATTR InstName D92
SYMBOL diode 240 96 R180
WINDOW 0 24 64 Left 2
WINDOW 3 24 0 Left 2
SYMATTR InstName D93
SYMBOL diode 240 160 R180
WINDOW 0 24 64 Left 2
WINDOW 3 24 0 Left 2
SYMATTR InstName D94
SYMBOL diode 320 96 R0
SYMATTR InstName D95
SYMBOL diode 320 32 R0
SYMATTR InstName D96
SYMBOL diode 320 -32 R0
SYMATTR InstName D97
SYMBOL diode 320 -96 R0
SYMATTR InstName D98
SYMBOL diode 320 -160 R0
SYMATTR InstName D99
SYMBOL diode 320 -224 R0
SYMATTR InstName D100
SYMBOL diode 320 -288 R0
SYMATTR InstName D101
SYMBOL diode 320 -352 R0
SYMATTR InstName D102
SYMBOL diode 320 -416 R0
SYMATTR InstName D103
SYMBOL diode 320 -480 R0
SYMATTR InstName D104
SYMBOL diode 320 -544 R0
SYMATTR InstName D105
SYMBOL diode 320 -608 R0
SYMATTR InstName D106
SYMBOL diode 320 -672 R0
SYMATTR InstName D107
SYMBOL diode 320 -736 R0
SYMATTR InstName D108
SYMBOL diode 320 -800 R0
SYMATTR InstName D109
SYMBOL diode 320 -864 R0
SYMATTR InstName D110
SYMBOL diode 320 -928 R0
SYMATTR InstName D111
SYMBOL diode 320 -992 R0
SYMATTR InstName D112
SYMBOL diode 320 -1056 R0
SYMATTR InstName D113
SYMBOL diode 320 -1120 R0
SYMATTR InstName D114
SYMBOL diode 320 -1184 R0
SYMATTR InstName D115
SYMBOL diode 320 -1248 R0
SYMATTR InstName D116
SYMBOL diode 320 -1312 R0
SYMATTR InstName D117
SYMBOL diode 320 -1376 R0
SYMATTR InstName D118
SYMBOL diode 320 -1440 R0
SYMATTR InstName D119
SYMBOL diode 320 -1504 R0
SYMATTR InstName D120
SYMBOL diode 320 -1568 R0
SYMATTR InstName D121
SYMBOL diode 320 -1632 R0
SYMATTR InstName D122
SYMBOL diode 320 -1696 R0
SYMATTR InstName D123
SYMBOL diode 320 -1760 R0
SYMATTR InstName D124
SYMBOL diode 320 -1824 R0
SYMATTR InstName D125
SYMBOL diode 320 -1888 R0
SYMATTR InstName D126
SYMBOL diode 320 -1952 R0
SYMATTR InstName D127
SYMBOL diode 320 -2016 R0
SYMATTR InstName D128
SYMBOL diode 320 -2080 R0
SYMATTR InstName D129
SYMBOL diode 320 -2144 R0
SYMATTR InstName D130
SYMBOL diode 320 -2208 R0
SYMATTR InstName D131
SYMBOL diode 320 -2272 R0
SYMATTR InstName D132
SYMBOL diode 320 -2336 R0
SYMATTR InstName D133
SYMBOL diode 320 -2400 R0
SYMATTR InstName D134
SYMBOL diode 320 -2464 R0
SYMATTR InstName D135
SYMBOL diode 320 -2528 R0
SYMATTR InstName D136
SYMBOL diode 320 -2592 R0
SYMATTR InstName D137
SYMBOL diode 320 -2656 R0
SYMATTR InstName D138
SYMBOL diode 320 -2720 R0
SYMATTR InstName D139
SYMBOL diode 320 -2784 R0
SYMATTR InstName D140
SYMBOL diode 320 -2848 R0
SYMATTR InstName D141
SYMBOL diode 480 -2784 R180
WINDOW 0 24 64 Left 2
WINDOW 3 24 0 Left 2
SYMATTR InstName D142
SYMBOL diode 480 -2720 R180
WINDOW 0 24 64 Left 2
WINDOW 3 24 0 Left 2
SYMATTR InstName D143
SYMBOL diode 480 -2656 R180
WINDOW 0 24 64 Left 2
WINDOW 3 24 0 Left 2
SYMATTR InstName D144
SYMBOL diode 480 -2592 R180
WINDOW 0 24 64 Left 2
WINDOW 3 24 0 Left 2
SYMATTR InstName D145
SYMBOL diode 480 -2528 R180
WINDOW 0 24 64 Left 2
WINDOW 3 24 0 Left 2
SYMATTR InstName D146
SYMBOL diode 480 -2464 R180
WINDOW 0 24 64 Left 2
WINDOW 3 24 0 Left 2
SYMATTR InstName D147
SYMBOL diode 480 -2400 R180
WINDOW 0 24 64 Left 2
WINDOW 3 24 0 Left 2
SYMATTR InstName D148
SYMBOL diode 480 -2336 R180
WINDOW 0 24 64 Left 2
WINDOW 3 24 0 Left 2
SYMATTR InstName D149
SYMBOL diode 480 -2272 R180
WINDOW 0 24 64 Left 2
WINDOW 3 24 0 Left 2
SYMATTR InstName D150
SYMBOL diode 480 -2208 R180
WINDOW 0 24 64 Left 2
WINDOW 3 24 0 Left 2
SYMATTR InstName D151
SYMBOL diode 480 -2144 R180
WINDOW 0 24 64 Left 2
WINDOW 3 24 0 Left 2
SYMATTR InstName D152
SYMBOL diode 480 -2080 R180
WINDOW 0 24 64 Left 2
WINDOW 3 24 0 Left 2
SYMATTR InstName D153
SYMBOL diode 480 -2016 R180
WINDOW 0 24 64 Left 2
WINDOW 3 24 0 Left 2
SYMATTR InstName D154
SYMBOL diode 480 -1952 R180
WINDOW 0 24 64 Left 2
WINDOW 3 24 0 Left 2
SYMATTR InstName D155
SYMBOL diode 480 -1888 R180
WINDOW 0 24 64 Left 2
WINDOW 3 24 0 Left 2
SYMATTR InstName D156
SYMBOL diode 480 -1824 R180
WINDOW 0 24 64 Left 2
WINDOW 3 24 0 Left 2
SYMATTR InstName D157
SYMBOL diode 480 -1760 R180
WINDOW 0 24 64 Left 2
WINDOW 3 24 0 Left 2
SYMATTR InstName D158
SYMBOL diode 480 -1696 R180
WINDOW 0 24 64 Left 2
WINDOW 3 24 0 Left 2
SYMATTR InstName D159
SYMBOL diode 480 -1632 R180
WINDOW 0 24 64 Left 2
WINDOW 3 24 0 Left 2
SYMATTR InstName D160
SYMBOL diode 480 -1568 R180
WINDOW 0 24 64 Left 2
WINDOW 3 24 0 Left 2
SYMATTR InstName D161
SYMBOL diode 480 -1504 R180
WINDOW 0 24 64 Left 2
WINDOW 3 24 0 Left 2
SYMATTR InstName D162
SYMBOL diode 480 -1440 R180
WINDOW 0 24 64 Left 2
WINDOW 3 24 0 Left 2
SYMATTR InstName D163
SYMBOL diode 480 -1376 R180
WINDOW 0 24 64 Left 2
WINDOW 3 24 0 Left 2
SYMATTR InstName D164
SYMBOL diode 480 -1312 R180
WINDOW 0 24 64 Left 2
WINDOW 3 24 0 Left 2
SYMATTR InstName D165
SYMBOL diode 480 -1248 R180
WINDOW 0 24 64 Left 2
WINDOW 3 24 0 Left 2
SYMATTR InstName D166
SYMBOL diode 480 -1184 R180
WINDOW 0 24 64 Left 2
WINDOW 3 24 0 Left 2
SYMATTR InstName D167
SYMBOL diode 480 -1120 R180
WINDOW 0 24 64 Left 2
WINDOW 3 24 0 Left 2
SYMATTR InstName D168
SYMBOL diode 480 -1056 R180
WINDOW 0 24 64 Left 2
WINDOW 3 24 0 Left 2
SYMATTR InstName D169
SYMBOL diode 480 -992 R180
WINDOW 0 24 64 Left 2
WINDOW 3 24 0 Left 2
SYMATTR InstName D170
SYMBOL diode 480 -928 R180
WINDOW 0 24 64 Left 2
WINDOW 3 24 0 Left 2
SYMATTR InstName D171
SYMBOL diode 480 -864 R180
WINDOW 0 24 64 Left 2
WINDOW 3 24 0 Left 2
SYMATTR InstName D172
SYMBOL diode 480 -800 R180
WINDOW 0 24 64 Left 2
WINDOW 3 24 0 Left 2
SYMATTR InstName D173
SYMBOL diode 480 -736 R180
WINDOW 0 24 64 Left 2
WINDOW 3 24 0 Left 2
SYMATTR InstName D174
SYMBOL diode 480 -672 R180
WINDOW 0 24 64 Left 2
WINDOW 3 24 0 Left 2
SYMATTR InstName D175
SYMBOL diode 480 -608 R180
WINDOW 0 24 64 Left 2
WINDOW 3 24 0 Left 2
SYMATTR InstName D176
SYMBOL diode 480 -544 R180
WINDOW 0 24 64 Left 2
WINDOW 3 24 0 Left 2
SYMATTR InstName D177
SYMBOL diode 480 -480 R180
WINDOW 0 24 64 Left 2
WINDOW 3 24 0 Left 2
SYMATTR InstName D178
SYMBOL diode 480 -416 R180
WINDOW 0 24 64 Left 2
WINDOW 3 24 0 Left 2
SYMATTR InstName D179
SYMBOL diode 480 -352 R180
WINDOW 0 24 64 Left 2
WINDOW 3 24 0 Left 2
SYMATTR InstName D180
SYMBOL diode 480 -288 R180
WINDOW 0 24 64 Left 2
WINDOW 3 24 0 Left 2
SYMATTR InstName D181
SYMBOL diode 480 -224 R180
WINDOW 0 24 64 Left 2
WINDOW 3 24 0 Left 2
SYMATTR InstName D182
SYMBOL diode 480 -160 R180
WINDOW 0 24 64 Left 2
WINDOW 3 24 0 Left 2
SYMATTR InstName D183
SYMBOL diode 480 -96 R180
WINDOW 0 24 64 Left 2
WINDOW 3 24 0 Left 2
SYMATTR InstName D184
SYMBOL diode 480 -32 R180
WINDOW 0 24 64 Left 2
WINDOW 3 24 0 Left 2
SYMATTR InstName D185
SYMBOL diode 480 32 R180
WINDOW 0 24 64 Left 2
WINDOW 3 24 0 Left 2
SYMATTR InstName D186
SYMBOL diode 480 96 R180
WINDOW 0 24 64 Left 2
WINDOW 3 24 0 Left 2
SYMATTR InstName D187
SYMBOL diode 480 160 R180
WINDOW 0 24 64 Left 2
WINDOW 3 24 0 Left 2
SYMATTR InstName D188
SYMBOL diode 560 96 R0
SYMATTR InstName D189
SYMBOL diode 560 32 R0
SYMATTR InstName D190
SYMBOL diode 560 -32 R0
SYMATTR InstName D191
SYMBOL diode 560 -96 R0
SYMATTR InstName D192
SYMBOL diode 560 -160 R0
SYMATTR InstName D193
SYMBOL diode 560 -224 R0
SYMATTR InstName D194
SYMBOL diode 560 -288 R0
SYMATTR InstName D195
SYMBOL diode 560 -352 R0
SYMATTR InstName D196
SYMBOL diode 560 -416 R0
SYMATTR InstName D197
SYMBOL diode 560 -480 R0
SYMATTR InstName D198
SYMBOL diode 560 -544 R0
SYMATTR InstName D199
SYMBOL diode 560 -608 R0
SYMATTR InstName D200
SYMBOL diode 560 -672 R0
SYMATTR InstName D201
SYMBOL diode 560 -736 R0
SYMATTR InstName D202
SYMBOL diode 560 -800 R0
SYMATTR InstName D203
SYMBOL diode 560 -864 R0
SYMATTR InstName D204
SYMBOL diode 560 -928 R0
SYMATTR InstName D205
SYMBOL diode 560 -992 R0
SYMATTR InstName D206
SYMBOL diode 560 -1056 R0
SYMATTR InstName D207
SYMBOL diode 560 -1120 R0
SYMATTR InstName D208
SYMBOL diode 560 -1184 R0
SYMATTR InstName D209
SYMBOL diode 560 -1248 R0
SYMATTR InstName D210
SYMBOL diode 560 -1312 R0
SYMATTR InstName D211
SYMBOL diode 560 -1376 R0
SYMATTR InstName D212
SYMBOL diode 560 -1440 R0
SYMATTR InstName D213
SYMBOL diode 560 -1504 R0
SYMATTR InstName D214
SYMBOL diode 560 -1568 R0
SYMATTR InstName D215
SYMBOL diode 560 -1632 R0
SYMATTR InstName D216
SYMBOL diode 560 -1696 R0
SYMATTR InstName D217
SYMBOL diode 560 -1760 R0
SYMATTR InstName D218
SYMBOL diode 560 -1824 R0
SYMATTR InstName D219
SYMBOL diode 560 -1888 R0
SYMATTR InstName D220
SYMBOL diode 560 -1952 R0
SYMATTR InstName D221
SYMBOL diode 560 -2016 R0
SYMATTR InstName D222
SYMBOL diode 560 -2080 R0
SYMATTR InstName D223
SYMBOL diode 560 -2144 R0
SYMATTR InstName D224
SYMBOL diode 560 -2208 R0
SYMATTR InstName D225
SYMBOL diode 560 -2272 R0
SYMATTR InstName D226
SYMBOL diode 560 -2336 R0
SYMATTR InstName D227
SYMBOL diode 560 -2400 R0
SYMATTR InstName D228
SYMBOL diode 560 -2464 R0
SYMATTR InstName D229
SYMBOL diode 560 -2528 R0
SYMATTR InstName D230
SYMBOL diode 560 -2592 R0
SYMATTR InstName D231
SYMBOL diode 560 -2656 R0
SYMATTR InstName D232
SYMBOL diode 560 -2720 R0
SYMATTR InstName D233
SYMBOL diode 560 -2784 R0
SYMATTR InstName D234
SYMBOL diode 560 -2848 R0
SYMATTR InstName D235
SYMBOL diode 720 -2784 R180
WINDOW 0 24 64 Left 2
WINDOW 3 24 0 Left 2
SYMATTR InstName D236
SYMBOL diode 720 -2720 R180
WINDOW 0 24 64 Left 2
WINDOW 3 24 0 Left 2
SYMATTR InstName D237
SYMBOL diode 720 -2656 R180
WINDOW 0 24 64 Left 2
WINDOW 3 24 0 Left 2
SYMATTR InstName D238
SYMBOL diode 720 -2592 R180
WINDOW 0 24 64 Left 2
WINDOW 3 24 0 Left 2
SYMATTR InstName D239
SYMBOL diode 720 -2528 R180
WINDOW 0 24 64 Left 2
WINDOW 3 24 0 Left 2
SYMATTR InstName D240
SYMBOL diode 720 -2464 R180
WINDOW 0 24 64 Left 2
WINDOW 3 24 0 Left 2
SYMATTR InstName D241
SYMBOL diode 720 -2400 R180
WINDOW 0 24 64 Left 2
WINDOW 3 24 0 Left 2
SYMATTR InstName D242
SYMBOL diode 720 -2336 R180
WINDOW 0 24 64 Left 2
WINDOW 3 24 0 Left 2
SYMATTR InstName D243
SYMBOL diode 720 -2272 R180
WINDOW 0 24 64 Left 2
WINDOW 3 24 0 Left 2
SYMATTR InstName D244
SYMBOL diode 720 -2208 R180
WINDOW 0 24 64 Left 2
WINDOW 3 24 0 Left 2
SYMATTR InstName D245
SYMBOL diode 720 -2144 R180
WINDOW 0 24 64 Left 2
WINDOW 3 24 0 Left 2
SYMATTR InstName D246
SYMBOL diode 720 -2080 R180
WINDOW 0 24 64 Left 2
WINDOW 3 24 0 Left 2
SYMATTR InstName D247
SYMBOL diode 720 -2016 R180
WINDOW 0 24 64 Left 2
WINDOW 3 24 0 Left 2
SYMATTR InstName D248
SYMBOL diode 720 -1952 R180
WINDOW 0 24 64 Left 2
WINDOW 3 24 0 Left 2
SYMATTR InstName D249
SYMBOL diode 720 -1888 R180
WINDOW 0 24 64 Left 2
WINDOW 3 24 0 Left 2
SYMATTR InstName D250
SYMBOL diode 720 -1824 R180
WINDOW 0 24 64 Left 2
WINDOW 3 24 0 Left 2
SYMATTR InstName D251
SYMBOL diode 720 -1760 R180
WINDOW 0 24 64 Left 2
WINDOW 3 24 0 Left 2
SYMATTR InstName D252
SYMBOL diode 720 -1696 R180
WINDOW 0 24 64 Left 2
WINDOW 3 24 0 Left 2
SYMATTR InstName D253
SYMBOL diode 720 -1632 R180
WINDOW 0 24 64 Left 2
WINDOW 3 24 0 Left 2
SYMATTR InstName D254
SYMBOL diode 720 -1568 R180
WINDOW 0 24 64 Left 2
WINDOW 3 24 0 Left 2
SYMATTR InstName D255
SYMBOL diode 720 -1504 R180
WINDOW 0 24 64 Left 2
WINDOW 3 24 0 Left 2
SYMATTR InstName D256
SYMBOL diode 720 -1440 R180
WINDOW 0 24 64 Left 2
WINDOW 3 24 0 Left 2
SYMATTR InstName D257
SYMBOL diode 720 -1376 R180
WINDOW 0 24 64 Left 2
WINDOW 3 24 0 Left 2
SYMATTR InstName D258
SYMBOL diode 720 -1312 R180
WINDOW 0 24 64 Left 2
WINDOW 3 24 0 Left 2
SYMATTR InstName D259
SYMBOL diode 720 -1248 R180
WINDOW 0 24 64 Left 2
WINDOW 3 24 0 Left 2
SYMATTR InstName D260
SYMBOL diode 720 -1184 R180
WINDOW 0 24 64 Left 2
WINDOW 3 24 0 Left 2
SYMATTR InstName D261
SYMBOL diode 720 -1120 R180
WINDOW 0 24 64 Left 2
WINDOW 3 24 0 Left 2
SYMATTR InstName D262
SYMBOL diode 720 -1056 R180
WINDOW 0 24 64 Left 2
WINDOW 3 24 0 Left 2
SYMATTR InstName D263
SYMBOL diode 720 -992 R180
WINDOW 0 24 64 Left 2
WINDOW 3 24 0 Left 2
SYMATTR InstName D264
SYMBOL diode 720 -928 R180
WINDOW 0 24 64 Left 2
WINDOW 3 24 0 Left 2
SYMATTR InstName D265
SYMBOL diode 720 -864 R180
WINDOW 0 24 64 Left 2
WINDOW 3 24 0 Left 2
SYMATTR InstName D266
SYMBOL diode 720 -800 R180
WINDOW 0 24 64 Left 2
WINDOW 3 24 0 Left 2
SYMATTR InstName D267
SYMBOL diode 720 -736 R180
WINDOW 0 24 64 Left 2
WINDOW 3 24 0 Left 2
SYMATTR InstName D268
SYMBOL diode 720 -672 R180
WINDOW 0 24 64 Left 2
WINDOW 3 24 0 Left 2
SYMATTR InstName D269
SYMBOL diode 720 -608 R180
WINDOW 0 24 64 Left 2
WINDOW 3 24 0 Left 2
SYMATTR InstName D270
SYMBOL diode 720 -544 R180
WINDOW 0 24 64 Left 2
WINDOW 3 24 0 Left 2
SYMATTR InstName D271
SYMBOL diode 720 -480 R180
WINDOW 0 24 64 Left 2
WINDOW 3 24 0 Left 2
SYMATTR InstName D272
SYMBOL diode 720 -416 R180
WINDOW 0 24 64 Left 2
WINDOW 3 24 0 Left 2
SYMATTR InstName D273
SYMBOL diode 720 -352 R180
WINDOW 0 24 64 Left 2
WINDOW 3 24 0 Left 2
SYMATTR InstName D274
SYMBOL diode 720 -288 R180
WINDOW 0 24 64 Left 2
WINDOW 3 24 0 Left 2
SYMATTR InstName D275
SYMBOL diode 720 -224 R180
WINDOW 0 24 64 Left 2
WINDOW 3 24 0 Left 2
SYMATTR InstName D276
SYMBOL diode 720 -160 R180
WINDOW 0 24 64 Left 2
WINDOW 3 24 0 Left 2
SYMATTR InstName D277
SYMBOL diode 720 -96 R180
WINDOW 0 24 64 Left 2
WINDOW 3 24 0 Left 2
SYMATTR InstName D278
SYMBOL diode 720 -32 R180
WINDOW 0 24 64 Left 2
WINDOW 3 24 0 Left 2
SYMATTR InstName D279
SYMBOL diode 720 32 R180
WINDOW 0 24 64 Left 2
WINDOW 3 24 0 Left 2
SYMATTR InstName D280
SYMBOL diode 720 96 R180
WINDOW 0 24 64 Left 2
WINDOW 3 24 0 Left 2
SYMATTR InstName D281
SYMBOL diode 720 160 R180
WINDOW 0 24 64 Left 2
WINDOW 3 24 0 Left 2
SYMATTR InstName D282
