Version 4
SHEET 1 880 680
WIRE 160 176 128 176
WIRE 304 176 256 176
WIRE 128 256 128 176
FLAG 128 256 0
FLAG 304 256 0
SYMBOL EC370M-6-120FB_370_Wp 208 176 R0
SYMATTR InstName X1
SYMBOL voltage 304 160 R0
WINDOW 123 0 0 Left 0
WINDOW 39 0 0 Left 0
SYMATTR InstName V1
SYMATTR Value 0
TEXT 16 304 Left 2 !.dc v1 0 230 100m
TEXT 16 336 Left 2 !.PARAM SOLAR_PANEL_CURRENT = 10
