Version 4
SHEET 1 880 680
WIRE 128 16 48 16
WIRE 128 64 128 16
WIRE 128 192 128 144
WIRE -48 208 -48 16
FLAG -48 208 0
FLAG 128 192 0
DATAFLAG 112 16 ""
SYMBOL EC370M-6-120FB_370_Wp 0 16 R0
SYMATTR InstName X1
SYMBOL res 112 48 R0
SYMATTR InstName R1
SYMATTR Value 17.67R
TEXT -568 -24 Left 2 !.param SOLAR_PANEL_CURRENT=10.83
TEXT -544 112 Left 2 !.op
